File C:\Users\Ahmed\Desktop\SapTest\untimate test.$2k was saved on m/d/yy at h:mm:ss
 
TABLE:  "ACTIVE DEGREES OF FREEDOM"
   UX=Yes   UY=Yes   UZ=Yes   RX=Yes   RY=Yes   RZ=Yes
 
TABLE:  "ANALYSIS OPTIONS"
   Solver=Advanced   SolverProc=Auto   Force32Bit=No   StiffCase=None   GeomMod=None   HingeOpt="In Elements"   NumAThreads=0   MaxFileSize=0   NumDThreads=0   NumRThreads=0   UseMMFiles="Program Determined"   AllowDiff=No
 
TABLE:  "AUTO WAVE 3 - WAVE CHARACTERISTICS - GENERAL"
   WaveChar=Default   WaveType="From Theory"   KinFactor=1   SWaterDepth=1800   WaveHeight=720   WavePeriod=12   WaveTheory=Linear
 
TABLE:  "CASE - MODAL 1 - GENERAL"
   Case=MODAL   ModeType=Eigen   MaxNumModes=12   MinNumModes=1   EigenShift=0   EigenCutoff=0   EigenTol=1E-09   AutoShift=Yes
 
TABLE:  "CASE - RESPONSE SPECTRUM 1 - GENERAL"
   Case=RSA_X   ModalCombo=CQC   GMCf1=1   GMCf2=0   PerRigid=SRSS   DirCombo=SRSS   ConstDamp=0.05   EccenRatio=0
 
TABLE:  "CASE - RESPONSE SPECTRUM 2 - LOAD ASSIGNMENTS"
   Case=RSA_X   LoadName=U1   CoordSys=GLOBAL   Function="Response Spectrum"   Angle=0   TransAccSF=9.81
 
TABLE:  "CASE - STATIC 1 - LOAD ASSIGNMENTS"
   Case=DEAD   LoadType="Load pattern"   LoadName=DEAD   LoadSF=1
   Case=Live   LoadType="Load pattern"   LoadName=Live   LoadSF=1
   Case=1.6D+1.4L   LoadType="Load pattern"   LoadName=DEAD   LoadSF=1.6
   Case=1.6D+1.4L   LoadType="Load pattern"   LoadName=Live   LoadSF=1.4
 
TABLE:  "CONNECTIVITY - FRAME"
   Frame=1   JointI=1   JointJ=2   IsCurved=No   GUID=9b78deca-5367-449d-af1f-7b50eea38bb6
   Frame=2   JointI=2   JointJ=3   IsCurved=No   GUID=38e0ef82-1646-4fa1-a945-73e9d49237d5
   Frame=3   JointI=3   JointJ=4   IsCurved=No   GUID=9cfa2402-ed68-4b2c-8bbd-03caf97b9590
   Frame=4   JointI=5   JointJ=6   IsCurved=No   GUID=a87cac2b-1766-4ee0-9e4e-64aafd80acb9
   Frame=5   JointI=6   JointJ=7   IsCurved=No   GUID=d72567ee-ecf1-4011-80e4-e9c98d9502b2
   Frame=6   JointI=7   JointJ=8   IsCurved=No   GUID=775b0d07-c2b9-4a5d-b211-ad94218ed2b4
   Frame=7   JointI=9   JointJ=10   IsCurved=No   GUID=0aefad43-d45b-4262-bb92-513c7c0a8aa4
   Frame=8   JointI=10   JointJ=11   IsCurved=No   GUID=5f614d56-004d-4cf5-b300-446aaab636e8
   Frame=9   JointI=11   JointJ=12   IsCurved=No   GUID=3cee8bab-b0e8-4f9a-a19d-5815de68b23b
   Frame=10   JointI=13   JointJ=14   IsCurved=No   GUID=03c833d2-0775-4ecc-987a-e4dda4686b65
   Frame=12   JointI=14   JointJ=16   IsCurved=No   GUID=67712f09-6eaf-42a4-a9a9-ebfc9837b4ed
   Frame=13   JointI=16   JointJ=17   IsCurved=No   GUID=443fbd96-e335-4259-b8eb-0105b7efbd88
   Frame=14   JointI=1   JointJ=5   IsCurved=No   GUID=90b451fa-5bbb-4cf6-a161-76182a784b7f
   Frame=15   JointI=5   JointJ=9   IsCurved=No   GUID=b1a6c389-5ab3-4b86-8e6d-fd2141ffa45c
   Frame=16   JointI=9   JointJ=13   IsCurved=No   GUID=bcaa9ad8-3300-4ef4-8f8a-736f80a2008b
   Frame=17   JointI=2   JointJ=6   IsCurved=No   GUID=31faca62-7c8d-450f-ac51-2b473dfb4543
   Frame=18   JointI=6   JointJ=10   IsCurved=No   GUID=763b6a84-3e6c-4e3a-a917-014fec838fbf
   Frame=19   JointI=10   JointJ=14   IsCurved=No   GUID=f6b36a99-0361-45c2-b271-d3f67b93a0c9
   Frame=20   JointI=3   JointJ=7   IsCurved=No   GUID=05df91d8-ce50-486d-a5af-70c923c78931
   Frame=21   JointI=7   JointJ=11   IsCurved=No   GUID=0934f6fe-70d6-436b-a4a5-3c3b1e952e95
   Frame=22   JointI=11   JointJ=16   IsCurved=No   GUID=95415ca9-2b4a-411d-8433-1b8632d08cb9
   Frame=23   JointI=8   JointJ=12   IsCurved=No   GUID=c4ec1329-733f-4be0-a514-cd4a220234d8
   Frame=24   JointI=12   JointJ=17   IsCurved=No   GUID=a7b26d26-d018-47c5-9fb8-341884d79015
   Frame=25   JointI=4   JointJ=8   IsCurved=No   GUID=9fda941b-f329-429a-90e4-0f0caf8c9079
   Frame=27   JointI=19   JointJ=1   IsCurved=No   GUID=6a2ad4c6-c08e-49da-9fa5-45d0a33d28a7
   Frame=28   JointI=20   JointJ=5   IsCurved=No   GUID=12eef041-0ac4-442f-83e9-b6b205ea9fbe
   Frame=29   JointI=21   JointJ=9   IsCurved=No   GUID=a3ff5d58-f9f8-4085-9406-5ef9baca33ca
   Frame=30   JointI=22   JointJ=13   IsCurved=No   GUID=4a35d9b5-d84d-4e26-9089-3eabb9e9b4ef
   Frame=31   JointI=23   JointJ=2   IsCurved=No   GUID=a7aee992-8b4c-4432-95f3-d9a5ae7ae573
   Frame=32   JointI=24   JointJ=6   IsCurved=No   GUID=bb56ced1-d23b-4e78-8ab0-99073d328998
   Frame=33   JointI=25   JointJ=10   IsCurved=No   GUID=3cd0f4e3-5a49-4baa-b5df-d0917065fbbd
   Frame=34   JointI=26   JointJ=14   IsCurved=No   GUID=ea0b9800-2840-4cdf-ba9d-99c91b56885b
   Frame=35   JointI=27   JointJ=3   IsCurved=No   GUID=68f72052-22d2-465e-80aa-2c1154fc71cc
   Frame=36   JointI=28   JointJ=7   IsCurved=No   GUID=0d9b666b-7a23-4cb9-b1ea-72fb35a0087c
   Frame=37   JointI=29   JointJ=11   IsCurved=No   GUID=04a28d59-92e3-45e8-8186-6e215e8a8da6
   Frame=38   JointI=30   JointJ=16   IsCurved=No   GUID=bd2f15de-1f45-4158-84dd-bb6ac02a5dad
   Frame=39   JointI=31   JointJ=4   IsCurved=No   GUID=a0c6bc06-f125-447e-83c2-84f08d597e06
   Frame=40   JointI=32   JointJ=8   IsCurved=No   GUID=ef572877-b557-4931-b80b-c0c613a3285c
   Frame=41   JointI=33   JointJ=12   IsCurved=No   GUID=38e0fe94-d0e8-4f71-b96e-5a1fe069ac0e
   Frame=42   JointI=34   JointJ=17   IsCurved=No   GUID=d24df80d-c77f-47e0-a05a-bb2b620c32f7
 
TABLE:  "COORDINATE SYSTEMS"
   Name=GLOBAL   Type=Cartesian   X=0   Y=0   Z=0   AboutZ=0   AboutY=0   AboutX=0
 
TABLE:  "DATABASE DOCUMENTATION"
 
TABLE:  "DATABASE FORMAT TYPES"
   UnitsCurr=Yes   OverrideE=No
 
TABLE:  "FRAME AUTO MESH ASSIGNMENTS"
   Frame=1   AutoMesh=Yes   AtJoints=Yes   AtFrames=No   NumSegments=0   MaxLength=0   MaxDegrees=0
   Frame=2   AutoMesh=Yes   AtJoints=Yes   AtFrames=No   NumSegments=0   MaxLength=0   MaxDegrees=0
   Frame=3   AutoMesh=Yes   AtJoints=Yes   AtFrames=No   NumSegments=0   MaxLength=0   MaxDegrees=0
   Frame=4   AutoMesh=Yes   AtJoints=Yes   AtFrames=No   NumSegments=0   MaxLength=0   MaxDegrees=0
   Frame=5   AutoMesh=Yes   AtJoints=Yes   AtFrames=No   NumSegments=0   MaxLength=0   MaxDegrees=0
   Frame=6   AutoMesh=Yes   AtJoints=Yes   AtFrames=No   NumSegments=0   MaxLength=0   MaxDegrees=0
   Frame=7   AutoMesh=Yes   AtJoints=Yes   AtFrames=No   NumSegments=0   MaxLength=0   MaxDegrees=0
   Frame=8   AutoMesh=Yes   AtJoints=Yes   AtFrames=No   NumSegments=0   MaxLength=0   MaxDegrees=0
   Frame=9   AutoMesh=Yes   AtJoints=Yes   AtFrames=No   NumSegments=0   MaxLength=0   MaxDegrees=0
   Frame=10   AutoMesh=Yes   AtJoints=Yes   AtFrames=No   NumSegments=0   MaxLength=0   MaxDegrees=0
   Frame=12   AutoMesh=Yes   AtJoints=Yes   AtFrames=No   NumSegments=0   MaxLength=0   MaxDegrees=0
   Frame=13   AutoMesh=Yes   AtJoints=Yes   AtFrames=No   NumSegments=0   MaxLength=0   MaxDegrees=0
   Frame=14   AutoMesh=Yes   AtJoints=Yes   AtFrames=No   NumSegments=0   MaxLength=0   MaxDegrees=0
   Frame=15   AutoMesh=Yes   AtJoints=Yes   AtFrames=No   NumSegments=0   MaxLength=0   MaxDegrees=0
   Frame=16   AutoMesh=Yes   AtJoints=Yes   AtFrames=No   NumSegments=0   MaxLength=0   MaxDegrees=0
   Frame=17   AutoMesh=Yes   AtJoints=Yes   AtFrames=No   NumSegments=0   MaxLength=0   MaxDegrees=0
   Frame=18   AutoMesh=Yes   AtJoints=Yes   AtFrames=No   NumSegments=0   MaxLength=0   MaxDegrees=0
   Frame=19   AutoMesh=Yes   AtJoints=Yes   AtFrames=No   NumSegments=0   MaxLength=0   MaxDegrees=0
   Frame=20   AutoMesh=Yes   AtJoints=Yes   AtFrames=No   NumSegments=0   MaxLength=0   MaxDegrees=0
   Frame=21   AutoMesh=Yes   AtJoints=Yes   AtFrames=No   NumSegments=0   MaxLength=0   MaxDegrees=0
# ... 20 like lines cut
 
TABLE:  "FRAME DESIGN PROCEDURES"
   Frame=1   DesignProc="No Design"
   Frame=2   DesignProc="No Design"
   Frame=3   DesignProc="No Design"
   Frame=4   DesignProc="No Design"
   Frame=5   DesignProc="No Design"
   Frame=6   DesignProc="No Design"
   Frame=7   DesignProc="No Design"
   Frame=8   DesignProc="No Design"
   Frame=9   DesignProc="No Design"
   Frame=10   DesignProc="No Design"
   Frame=12   DesignProc="No Design"
   Frame=13   DesignProc="No Design"
   Frame=14   DesignProc="No Design"
   Frame=15   DesignProc="No Design"
   Frame=16   DesignProc="No Design"
   Frame=17   DesignProc="No Design"
   Frame=18   DesignProc="No Design"
   Frame=19   DesignProc="No Design"
   Frame=20   DesignProc="No Design"
   Frame=21   DesignProc="No Design"
# ... 20 like lines cut
 
TABLE:  "FRAME INSERTION POINT ASSIGNMENTS"
   Frame=1   CardinalPt="10 (centroid)"   CoordSys=GLOBAL   JtOffsetXI=0   JtOffsetYI=0   JtOffsetZI=-0.3   JtOffsetXJ=0   JtOffsetYJ=0   JtOffsetZJ=-0.3   Mirror2=No   Mirror3=No   Transform=Yes
   Frame=2   CardinalPt="10 (centroid)"   CoordSys=GLOBAL   JtOffsetXI=0   JtOffsetYI=0   JtOffsetZI=-0.3   JtOffsetXJ=0   JtOffsetYJ=0   JtOffsetZJ=-0.3   Mirror2=No   Mirror3=No   Transform=Yes
   Frame=3   CardinalPt="10 (centroid)"   CoordSys=GLOBAL   JtOffsetXI=0   JtOffsetYI=0   JtOffsetZI=-0.3   JtOffsetXJ=0   JtOffsetYJ=0   JtOffsetZJ=-0.3   Mirror2=No   Mirror3=No   Transform=Yes
   Frame=4   CardinalPt="10 (centroid)"   CoordSys=GLOBAL   JtOffsetXI=0   JtOffsetYI=0   JtOffsetZI=-0.3   JtOffsetXJ=0   JtOffsetYJ=0   JtOffsetZJ=-0.3   Mirror2=No   Mirror3=No   Transform=Yes
   Frame=5   CardinalPt="10 (centroid)"   CoordSys=GLOBAL   JtOffsetXI=0   JtOffsetYI=0   JtOffsetZI=-0.3   JtOffsetXJ=0   JtOffsetYJ=0   JtOffsetZJ=-0.3   Mirror2=No   Mirror3=No   Transform=Yes
   Frame=6   CardinalPt="10 (centroid)"   CoordSys=GLOBAL   JtOffsetXI=0   JtOffsetYI=0   JtOffsetZI=-0.3   JtOffsetXJ=0   JtOffsetYJ=0   JtOffsetZJ=-0.3   Mirror2=No   Mirror3=No   Transform=Yes
   Frame=7   CardinalPt="10 (centroid)"   CoordSys=GLOBAL   JtOffsetXI=0   JtOffsetYI=0   JtOffsetZI=-0.3   JtOffsetXJ=0   JtOffsetYJ=0   JtOffsetZJ=-0.3   Mirror2=No   Mirror3=No   Transform=Yes
   Frame=8   CardinalPt="10 (centroid)"   CoordSys=GLOBAL   JtOffsetXI=0   JtOffsetYI=0   JtOffsetZI=-0.3   JtOffsetXJ=0   JtOffsetYJ=0   JtOffsetZJ=-0.3   Mirror2=No   Mirror3=No   Transform=Yes
   Frame=9   CardinalPt="10 (centroid)"   CoordSys=GLOBAL   JtOffsetXI=0   JtOffsetYI=0   JtOffsetZI=-0.3   JtOffsetXJ=0   JtOffsetYJ=0   JtOffsetZJ=-0.3   Mirror2=No   Mirror3=No   Transform=Yes
   Frame=10   CardinalPt="10 (centroid)"   CoordSys=GLOBAL   JtOffsetXI=0   JtOffsetYI=0   JtOffsetZI=-0.3   JtOffsetXJ=0   JtOffsetYJ=0   JtOffsetZJ=-0.3   Mirror2=No   Mirror3=No   Transform=Yes
   Frame=12   CardinalPt="10 (centroid)"   CoordSys=GLOBAL   JtOffsetXI=0   JtOffsetYI=0   JtOffsetZI=-0.3   JtOffsetXJ=0   JtOffsetYJ=0   JtOffsetZJ=-0.3   Mirror2=No   Mirror3=No   Transform=Yes
   Frame=13   CardinalPt="10 (centroid)"   CoordSys=GLOBAL   JtOffsetXI=0   JtOffsetYI=0   JtOffsetZI=-0.3   JtOffsetXJ=0   JtOffsetYJ=0   JtOffsetZJ=-0.3   Mirror2=No   Mirror3=No   Transform=Yes
   Frame=14   CardinalPt="10 (centroid)"   CoordSys=GLOBAL   JtOffsetXI=0   JtOffsetYI=0   JtOffsetZI=-0.3   JtOffsetXJ=0   JtOffsetYJ=0   JtOffsetZJ=-0.3   Mirror2=No   Mirror3=No   Transform=Yes
   Frame=15   CardinalPt="10 (centroid)"   CoordSys=GLOBAL   JtOffsetXI=0   JtOffsetYI=0   JtOffsetZI=-0.3   JtOffsetXJ=0   JtOffsetYJ=0   JtOffsetZJ=-0.3   Mirror2=No   Mirror3=No   Transform=Yes
   Frame=16   CardinalPt="10 (centroid)"   CoordSys=GLOBAL   JtOffsetXI=0   JtOffsetYI=0   JtOffsetZI=-0.3   JtOffsetXJ=0   JtOffsetYJ=0   JtOffsetZJ=-0.3   Mirror2=No   Mirror3=No   Transform=Yes
   Frame=17   CardinalPt="10 (centroid)"   CoordSys=GLOBAL   JtOffsetXI=0   JtOffsetYI=0   JtOffsetZI=-0.3   JtOffsetXJ=0   JtOffsetYJ=0   JtOffsetZJ=-0.3   Mirror2=No   Mirror3=No   Transform=Yes
   Frame=18   CardinalPt="10 (centroid)"   CoordSys=GLOBAL   JtOffsetXI=0   JtOffsetYI=0   JtOffsetZI=-0.3   JtOffsetXJ=0   JtOffsetYJ=0   JtOffsetZJ=-0.3   Mirror2=No   Mirror3=No   Transform=Yes
   Frame=19   CardinalPt="10 (centroid)"   CoordSys=GLOBAL   JtOffsetXI=0   JtOffsetYI=0   JtOffsetZI=-0.3   JtOffsetXJ=0   JtOffsetYJ=0   JtOffsetZJ=-0.3   Mirror2=No   Mirror3=No   Transform=Yes
   Frame=20   CardinalPt="10 (centroid)"   CoordSys=GLOBAL   JtOffsetXI=0   JtOffsetYI=0   JtOffsetZI=-0.3   JtOffsetXJ=0   JtOffsetYJ=0   JtOffsetZJ=-0.3   Mirror2=No   Mirror3=No   Transform=Yes
   Frame=21   CardinalPt="10 (centroid)"   CoordSys=GLOBAL   JtOffsetXI=0   JtOffsetYI=0   JtOffsetZI=-0.3   JtOffsetXJ=0   JtOffsetYJ=0   JtOffsetZJ=-0.3   Mirror2=No   Mirror3=No   Transform=Yes
# ... 4 like lines cut
   Frame=27   CardinalPt="10 (centroid)"   Mirror2=No   Mirror3=No   Transform=Yes
   Frame=28   CardinalPt="10 (centroid)"   Mirror2=No   Mirror3=No   Transform=Yes
   Frame=29   CardinalPt="10 (centroid)"   Mirror2=No   Mirror3=No   Transform=Yes
   Frame=30   CardinalPt="10 (centroid)"   Mirror2=No   Mirror3=No   Transform=Yes
   Frame=31   CardinalPt="10 (centroid)"   Mirror2=No   Mirror3=No   Transform=Yes
   Frame=32   CardinalPt="10 (centroid)"   Mirror2=No   Mirror3=No   Transform=Yes
   Frame=33   CardinalPt="10 (centroid)"   Mirror2=No   Mirror3=No   Transform=Yes
   Frame=34   CardinalPt="10 (centroid)"   Mirror2=No   Mirror3=No   Transform=Yes
   Frame=35   CardinalPt="10 (centroid)"   Mirror2=No   Mirror3=No   Transform=Yes
   Frame=36   CardinalPt="10 (centroid)"   Mirror2=No   Mirror3=No   Transform=Yes
   Frame=37   CardinalPt="10 (centroid)"   Mirror2=No   Mirror3=No   Transform=Yes
   Frame=38   CardinalPt="10 (centroid)"   Mirror2=No   Mirror3=No   Transform=Yes
   Frame=39   CardinalPt="10 (centroid)"   Mirror2=No   Mirror3=No   Transform=Yes
   Frame=40   CardinalPt="10 (centroid)"   Mirror2=No   Mirror3=No   Transform=Yes
   Frame=41   CardinalPt="10 (centroid)"   Mirror2=No   Mirror3=No   Transform=Yes
   Frame=42   CardinalPt="10 (centroid)"   Mirror2=No   Mirror3=No   Transform=Yes
 
TABLE:  "FRAME LOADS - DISTRIBUTED"
   Frame=1   LoadPat=DEAD   CoordSys=GLOBAL   Type=Force   Dir=Gravity   DistType=RelDist   RelDistA=0   RelDistB=1   AbsDistA=0   AbsDistB=6   FOverLA=10   FOverLB=10   GUID=c8a5e16b-7e18-4210-9d0d-62883696e8b6
   Frame=2   LoadPat=DEAD   CoordSys=GLOBAL   Type=Force   Dir=Gravity   DistType=RelDist   RelDistA=0   RelDistB=1   AbsDistA=0   AbsDistB=6   FOverLA=10   FOverLB=10   GUID=1bdd8b7c-d74a-4870-8758-2f2d34c2f81a
   Frame=3   LoadPat=DEAD   CoordSys=GLOBAL   Type=Force   Dir=Gravity   DistType=RelDist   RelDistA=0   RelDistB=1   AbsDistA=0   AbsDistB=6   FOverLA=10   FOverLB=10   GUID=cea05bae-9449-468f-a4c7-1053c6cc3d9e
   Frame=4   LoadPat=DEAD   CoordSys=GLOBAL   Type=Force   Dir=Gravity   DistType=RelDist   RelDistA=0   RelDistB=1   AbsDistA=0   AbsDistB=6   FOverLA=10   FOverLB=10   GUID=b1def9e3-b51e-458d-84fa-e09ad7aa1780
   Frame=5   LoadPat=DEAD   CoordSys=GLOBAL   Type=Force   Dir=Gravity   DistType=RelDist   RelDistA=0   RelDistB=1   AbsDistA=0   AbsDistB=6   FOverLA=10   FOverLB=10   GUID=b505d84d-d22c-49e2-b7ca-910f55230422
   Frame=6   LoadPat=DEAD   CoordSys=GLOBAL   Type=Force   Dir=Gravity   DistType=RelDist   RelDistA=0   RelDistB=1   AbsDistA=0   AbsDistB=6   FOverLA=10   FOverLB=10   GUID=971b2d90-df97-4152-b99a-f292d1d9dc08
   Frame=7   LoadPat=DEAD   CoordSys=GLOBAL   Type=Force   Dir=Gravity   DistType=RelDist   RelDistA=0   RelDistB=1   AbsDistA=0   AbsDistB=6   FOverLA=10   FOverLB=10   GUID=3544cf7b-d3ce-40a6-86d8-06004bd1f3ec
   Frame=8   LoadPat=DEAD   CoordSys=GLOBAL   Type=Force   Dir=Gravity   DistType=RelDist   RelDistA=0   RelDistB=1   AbsDistA=0   AbsDistB=6   FOverLA=10   FOverLB=10   GUID=95dcc4b6-804a-4429-b570-47ebb7bfedcb
   Frame=9   LoadPat=DEAD   CoordSys=GLOBAL   Type=Force   Dir=Gravity   DistType=RelDist   RelDistA=0   RelDistB=1   AbsDistA=0   AbsDistB=6   FOverLA=10   FOverLB=10   GUID=90a9813a-cdbb-4647-a264-1e1430f42a08
   Frame=10   LoadPat=DEAD   CoordSys=GLOBAL   Type=Force   Dir=Gravity   DistType=RelDist   RelDistA=0   RelDistB=1   AbsDistA=0   AbsDistB=6   FOverLA=10   FOverLB=10   GUID=95d32f23-0efd-45d8-a147-3c83e500ef98
   Frame=12   LoadPat=DEAD   CoordSys=GLOBAL   Type=Force   Dir=Gravity   DistType=RelDist   RelDistA=0   RelDistB=1   AbsDistA=0   AbsDistB=6   FOverLA=10   FOverLB=10   GUID=9e329c4d-f441-469f-8a25-dccdb27b5d6f
   Frame=13   LoadPat=DEAD   CoordSys=GLOBAL   Type=Force   Dir=Gravity   DistType=RelDist   RelDistA=0   RelDistB=1   AbsDistA=0   AbsDistB=6   FOverLA=10   FOverLB=10   GUID=4ab37d0f-3491-4383-aec1-1cda7ece1c3d
   Frame=14   LoadPat=DEAD   CoordSys=GLOBAL   Type=Force   Dir=Gravity   DistType=RelDist   RelDistA=0   RelDistB=1   AbsDistA=0   AbsDistB=6   FOverLA=10   FOverLB=10   GUID=5c420507-43b4-4515-9b7f-9caa996d231f
   Frame=15   LoadPat=DEAD   CoordSys=GLOBAL   Type=Force   Dir=Gravity   DistType=RelDist   RelDistA=0   RelDistB=1   AbsDistA=0   AbsDistB=6   FOverLA=10   FOverLB=10   GUID=7e50e0a7-5557-4d4c-888c-c7017aedee2e
   Frame=16   LoadPat=DEAD   CoordSys=GLOBAL   Type=Force   Dir=Gravity   DistType=RelDist   RelDistA=0   RelDistB=1   AbsDistA=0   AbsDistB=6   FOverLA=10   FOverLB=10   GUID=603e6fb6-c322-4438-bd61-66a162387e65
   Frame=17   LoadPat=DEAD   CoordSys=GLOBAL   Type=Force   Dir=Gravity   DistType=RelDist   RelDistA=0   RelDistB=1   AbsDistA=0   AbsDistB=6   FOverLA=10   FOverLB=10   GUID=dfe48e78-c8af-4c3f-82b6-4c75b3e6fe8a
   Frame=18   LoadPat=DEAD   CoordSys=GLOBAL   Type=Force   Dir=Gravity   DistType=RelDist   RelDistA=0   RelDistB=1   AbsDistA=0   AbsDistB=6   FOverLA=10   FOverLB=10   GUID=f79c61d9-83c5-4a42-b8c2-fde25b0a1760
   Frame=19   LoadPat=DEAD   CoordSys=GLOBAL   Type=Force   Dir=Gravity   DistType=RelDist   RelDistA=0   RelDistB=1   AbsDistA=0   AbsDistB=6   FOverLA=10   FOverLB=10   GUID=023b0381-cd0d-43ee-931f-777ccac40046
   Frame=20   LoadPat=DEAD   CoordSys=GLOBAL   Type=Force   Dir=Gravity   DistType=RelDist   RelDistA=0   RelDistB=1   AbsDistA=0   AbsDistB=6   FOverLA=10   FOverLB=10   GUID=ac446a96-20a0-44a4-98ee-2a1c7d3e8aad
   Frame=21   LoadPat=DEAD   CoordSys=GLOBAL   Type=Force   Dir=Gravity   DistType=RelDist   RelDistA=0   RelDistB=1   AbsDistA=0   AbsDistB=6   FOverLA=10   FOverLB=10   GUID=4eb0378d-9376-4a18-8914-48bf72fa9579
   Frame=22   LoadPat=DEAD   CoordSys=GLOBAL   Type=Force   Dir=Gravity   DistType=RelDist   RelDistA=0   RelDistB=1   AbsDistA=0   AbsDistB=6   FOverLA=10   FOverLB=10   GUID=ad3672d9-cbd4-41aa-b0d8-c36fd835d527
   Frame=23   LoadPat=DEAD   CoordSys=GLOBAL   Type=Force   Dir=Gravity   DistType=RelDist   RelDistA=0   RelDistB=1   AbsDistA=0   AbsDistB=6   FOverLA=10   FOverLB=10   GUID=3f259b49-a1a1-4e51-97ab-976438c1010b
   Frame=24   LoadPat=DEAD   CoordSys=GLOBAL   Type=Force   Dir=Gravity   DistType=RelDist   RelDistA=0   RelDistB=1   AbsDistA=0   AbsDistB=6   FOverLA=10   FOverLB=10   GUID=295a3dee-e348-4e1b-b61b-c07243f2c2ce
   Frame=25   LoadPat=DEAD   CoordSys=GLOBAL   Type=Force   Dir=Gravity   DistType=RelDist   RelDistA=0   RelDistB=1   AbsDistA=0   AbsDistB=6   FOverLA=10   FOverLB=10   GUID=a24271d7-8a56-4f75-b5aa-a751a73ece0d
 
TABLE:  "FRAME LOAD TRANSFER OPTIONS"
   Frame=1   Transfer=Yes
   Frame=2   Transfer=Yes
   Frame=3   Transfer=Yes
   Frame=4   Transfer=Yes
   Frame=5   Transfer=Yes
   Frame=6   Transfer=Yes
   Frame=7   Transfer=Yes
   Frame=8   Transfer=Yes
   Frame=9   Transfer=Yes
   Frame=10   Transfer=Yes
   Frame=12   Transfer=Yes
   Frame=13   Transfer=Yes
   Frame=14   Transfer=Yes
   Frame=15   Transfer=Yes
   Frame=16   Transfer=Yes
   Frame=17   Transfer=Yes
   Frame=18   Transfer=Yes
   Frame=19   Transfer=Yes
   Frame=20   Transfer=Yes
   Frame=21   Transfer=Yes
# ... 20 like lines cut
 
TABLE:  "FRAME OFFSET ALONG LENGTH ASSIGNMENTS"
   Frame=1   Type=User   LengthI=0.15   LengthJ=0.15   RigidFactor=1
   Frame=2   Type=User   LengthI=0.15   LengthJ=0.15   RigidFactor=1
   Frame=3   Type=User   LengthI=0.15   LengthJ=0.15   RigidFactor=1
   Frame=4   Type=User   LengthI=0.15   LengthJ=0.15   RigidFactor=1
   Frame=5   Type=User   LengthI=0.15   LengthJ=0.15   RigidFactor=1
   Frame=6   Type=User   LengthI=0.15   LengthJ=0.15   RigidFactor=1
   Frame=7   Type=User   LengthI=0.15   LengthJ=0.15   RigidFactor=1
   Frame=8   Type=User   LengthI=0.15   LengthJ=0.15   RigidFactor=1
   Frame=9   Type=User   LengthI=0.15   LengthJ=0.15   RigidFactor=1
   Frame=10   Type=User   LengthI=0.15   LengthJ=0.15   RigidFactor=1
   Frame=12   Type=User   LengthI=0.15   LengthJ=0.15   RigidFactor=1
   Frame=13   Type=User   LengthI=0.15   LengthJ=0.15   RigidFactor=1
   Frame=14   Type=User   LengthI=0.3   LengthJ=0.3   RigidFactor=1
   Frame=15   Type=User   LengthI=0.3   LengthJ=0.3   RigidFactor=1
   Frame=16   Type=User   LengthI=0.3   LengthJ=0.3   RigidFactor=1
   Frame=17   Type=User   LengthI=0.3   LengthJ=0.3   RigidFactor=1
   Frame=18   Type=User   LengthI=0.3   LengthJ=0.3   RigidFactor=1
   Frame=19   Type=User   LengthI=0.3   LengthJ=0.3   RigidFactor=1
   Frame=20   Type=User   LengthI=0.3   LengthJ=0.3   RigidFactor=1
   Frame=21   Type=User   LengthI=0.3   LengthJ=0.3   RigidFactor=1
# ... 20 like lines cut
 
TABLE:  "FRAME OUTPUT STATION ASSIGNMENTS"
   Frame=1   StationType=MaxStaSpcg   MaxStaSpcg=0.5   AddAtElmInt=Yes   AddAtPtLoad=Yes
   Frame=2   StationType=MaxStaSpcg   MaxStaSpcg=0.5   AddAtElmInt=Yes   AddAtPtLoad=Yes
   Frame=3   StationType=MaxStaSpcg   MaxStaSpcg=0.5   AddAtElmInt=Yes   AddAtPtLoad=Yes
   Frame=4   StationType=MaxStaSpcg   MaxStaSpcg=0.5   AddAtElmInt=Yes   AddAtPtLoad=Yes
   Frame=5   StationType=MaxStaSpcg   MaxStaSpcg=0.5   AddAtElmInt=Yes   AddAtPtLoad=Yes
   Frame=6   StationType=MaxStaSpcg   MaxStaSpcg=0.5   AddAtElmInt=Yes   AddAtPtLoad=Yes
   Frame=7   StationType=MaxStaSpcg   MaxStaSpcg=0.5   AddAtElmInt=Yes   AddAtPtLoad=Yes
   Frame=8   StationType=MaxStaSpcg   MaxStaSpcg=0.5   AddAtElmInt=Yes   AddAtPtLoad=Yes
   Frame=9   StationType=MaxStaSpcg   MaxStaSpcg=0.5   AddAtElmInt=Yes   AddAtPtLoad=Yes
   Frame=10   StationType=MaxStaSpcg   MaxStaSpcg=0.5   AddAtElmInt=Yes   AddAtPtLoad=Yes
   Frame=12   StationType=MaxStaSpcg   MaxStaSpcg=0.5   AddAtElmInt=Yes   AddAtPtLoad=Yes
   Frame=13   StationType=MaxStaSpcg   MaxStaSpcg=0.5   AddAtElmInt=Yes   AddAtPtLoad=Yes
   Frame=14   StationType=MaxStaSpcg   MaxStaSpcg=0.5   AddAtElmInt=Yes   AddAtPtLoad=Yes
   Frame=15   StationType=MaxStaSpcg   MaxStaSpcg=0.5   AddAtElmInt=Yes   AddAtPtLoad=Yes
   Frame=16   StationType=MaxStaSpcg   MaxStaSpcg=0.5   AddAtElmInt=Yes   AddAtPtLoad=Yes
   Frame=17   StationType=MaxStaSpcg   MaxStaSpcg=0.5   AddAtElmInt=Yes   AddAtPtLoad=Yes
   Frame=18   StationType=MaxStaSpcg   MaxStaSpcg=0.5   AddAtElmInt=Yes   AddAtPtLoad=Yes
   Frame=19   StationType=MaxStaSpcg   MaxStaSpcg=0.5   AddAtElmInt=Yes   AddAtPtLoad=Yes
   Frame=20   StationType=MaxStaSpcg   MaxStaSpcg=0.5   AddAtElmInt=Yes   AddAtPtLoad=Yes
   Frame=21   StationType=MaxStaSpcg   MaxStaSpcg=0.5   AddAtElmInt=Yes   AddAtPtLoad=Yes
# ... 4 like lines cut
   Frame=27   StationType=MinNumSta   MinNumSta=3   AddAtElmInt=Yes   AddAtPtLoad=Yes
   Frame=28   StationType=MinNumSta   MinNumSta=3   AddAtElmInt=Yes   AddAtPtLoad=Yes
   Frame=29   StationType=MinNumSta   MinNumSta=3   AddAtElmInt=Yes   AddAtPtLoad=Yes
   Frame=30   StationType=MinNumSta   MinNumSta=3   AddAtElmInt=Yes   AddAtPtLoad=Yes
   Frame=31   StationType=MinNumSta   MinNumSta=3   AddAtElmInt=Yes   AddAtPtLoad=Yes
   Frame=32   StationType=MinNumSta   MinNumSta=3   AddAtElmInt=Yes   AddAtPtLoad=Yes
   Frame=33   StationType=MinNumSta   MinNumSta=3   AddAtElmInt=Yes   AddAtPtLoad=Yes
   Frame=34   StationType=MinNumSta   MinNumSta=3   AddAtElmInt=Yes   AddAtPtLoad=Yes
   Frame=35   StationType=MinNumSta   MinNumSta=3   AddAtElmInt=Yes   AddAtPtLoad=Yes
   Frame=36   StationType=MinNumSta   MinNumSta=3   AddAtElmInt=Yes   AddAtPtLoad=Yes
   Frame=37   StationType=MinNumSta   MinNumSta=3   AddAtElmInt=Yes   AddAtPtLoad=Yes
   Frame=38   StationType=MinNumSta   MinNumSta=3   AddAtElmInt=Yes   AddAtPtLoad=Yes
   Frame=39   StationType=MinNumSta   MinNumSta=3   AddAtElmInt=Yes   AddAtPtLoad=Yes
   Frame=40   StationType=MinNumSta   MinNumSta=3   AddAtElmInt=Yes   AddAtPtLoad=Yes
   Frame=41   StationType=MinNumSta   MinNumSta=3   AddAtElmInt=Yes   AddAtPtLoad=Yes
   Frame=42   StationType=MinNumSta   MinNumSta=3   AddAtElmInt=Yes   AddAtPtLoad=Yes
 
TABLE:  "FRAME SECTION ASSIGNMENTS"
   Frame=1   AutoSelect=N.A.   AnalSect="CB 30x60"   MatProp=Default
   Frame=2   AutoSelect=N.A.   AnalSect="CB 30x60"   MatProp=Default
   Frame=3   AutoSelect=N.A.   AnalSect="CB 30x60"   MatProp=Default
   Frame=4   AutoSelect=N.A.   AnalSect="CB 30x60"   MatProp=Default
   Frame=5   AutoSelect=N.A.   AnalSect="CB 30x60"   MatProp=Default
   Frame=6   AutoSelect=N.A.   AnalSect="CB 30x60"   MatProp=Default
   Frame=7   AutoSelect=N.A.   AnalSect="CB 30x60"   MatProp=Default
   Frame=8   AutoSelect=N.A.   AnalSect="CB 30x60"   MatProp=Default
   Frame=9   AutoSelect=N.A.   AnalSect="CB 30x60"   MatProp=Default
   Frame=10   AutoSelect=N.A.   AnalSect="CB 30x60"   MatProp=Default
   Frame=12   AutoSelect=N.A.   AnalSect="CB 30x60"   MatProp=Default
   Frame=13   AutoSelect=N.A.   AnalSect="CB 30x60"   MatProp=Default
   Frame=14   AutoSelect=N.A.   AnalSect="CB 30x60"   MatProp=Default
   Frame=15   AutoSelect=N.A.   AnalSect="CB 30x60"   MatProp=Default
   Frame=16   AutoSelect=N.A.   AnalSect="CB 30x60"   MatProp=Default
   Frame=17   AutoSelect=N.A.   AnalSect="CB 30x60"   MatProp=Default
   Frame=18   AutoSelect=N.A.   AnalSect="CB 30x60"   MatProp=Default
   Frame=19   AutoSelect=N.A.   AnalSect="CB 30x60"   MatProp=Default
   Frame=20   AutoSelect=N.A.   AnalSect="CB 30x60"   MatProp=Default
   Frame=21   AutoSelect=N.A.   AnalSect="CB 30x60"   MatProp=Default
# ... 20 like lines cut
 
TABLE:  "FRAME SECTION PROPERTIES 01 - GENERAL"
   SectionName="CB 30x60"   Material=C30   Shape=Rectangular   t3=0.6   t2=0.3   Area=0.18   TorsConst=0.003707859375   I33=0.0054   I22=0.00135   I23=0   AS2=0.15   AS3=0.15   S33Top=0.018   S33Bot=0.018   S22Left=0.009   S22Right=0.009 _
        Z33=0.027   Z22=0.0135   R33=0.173205080756888   R22=0.0866025403784439   CGOffset3=0   CGOffset2=0   EccV2=0   EccV3=0   Cw=0   Color=Red   FromFile=No   AMod=1   A2Mod=1   A3Mod=1   JMod=1   I2Mod=1   I3Mod=1   MMod=1   WMod=1 _
        GUID=e36feaec-1a5f-49a8-ab9b-93e08a67f171   Notes="Added 2/3/2026 5:36:19 PM"
 
TABLE:  "FRAME SECTION PROPERTIES 13 - TIME DEPENDENT"
   SectionName="CB 30x60"   TypeSize=Auto   AutoSFSize=1
 
TABLE:  "FUNCTION - PLOT FUNCTIONS"
   PlotFunc="Input Energy"   Type=Energy   Component=Input   Mode=All
 
TABLE:  "FUNCTION - POWER SPECTRAL DENSITY - USER"
   Name=UNIFPSD   Frequency=0   Value=1
   Name=UNIFPSD   Frequency=1   Value=1
 
TABLE:  "FUNCTION - RESPONSE SPECTRUM - TSC-2018"
   Name="Response Spectrum"   FuncDamp=0.05   SpecDir=Horizontal   Ss=0.55   S1=0.22   TL=6   SiteClass=ZB   Fs=0.9   F1=0.8   R=8   D=3   I=1
 
TABLE:  "FUNCTION - STEADY STATE - USER"
   Name=UNIFSS   Frequency=0   Value=1
   Name=UNIFSS   Frequency=1   Value=1
 
TABLE:  "FUNCTION - TIME HISTORY - USER"
   Name=RAMPTH   Time=0   Value=0
   Name=RAMPTH   Time=1   Value=1
   Name=RAMPTH   Time=4   Value=1
   Name=UNIFTH   Time=0   Value=1
   Name=UNIFTH   Time=1   Value=1
 
TABLE:  "GRID LINES"
   CoordSys=GLOBAL   AxisDir=X   GridID=A   XRYZCoord=0   LineType=Primary   LineColor=Gray8Dark   Visible=Yes   BubbleLoc=End   AllVisible=Yes   BubbleSize=1.25
   CoordSys=GLOBAL   AxisDir=X   GridID=B   XRYZCoord=6   LineType=Primary   LineColor=Gray8Dark   Visible=Yes   BubbleLoc=End
   CoordSys=GLOBAL   AxisDir=X   GridID=C   XRYZCoord=12   LineType=Primary   LineColor=Gray8Dark   Visible=Yes   BubbleLoc=End
   CoordSys=GLOBAL   AxisDir=X   GridID=D   XRYZCoord=18   LineType=Primary   LineColor=Gray8Dark   Visible=Yes   BubbleLoc=End
   CoordSys=GLOBAL   AxisDir=Y   GridID=1   XRYZCoord=0   LineType=Primary   LineColor=Gray8Dark   Visible=Yes   BubbleLoc=Start
   CoordSys=GLOBAL   AxisDir=Y   GridID=2   XRYZCoord=6   LineType=Primary   LineColor=Gray8Dark   Visible=Yes   BubbleLoc=Start
   CoordSys=GLOBAL   AxisDir=Y   GridID=3   XRYZCoord=12   LineType=Primary   LineColor=Gray8Dark   Visible=Yes   BubbleLoc=Start
   CoordSys=GLOBAL   AxisDir=Y   GridID=4   XRYZCoord=18   LineType=Primary   LineColor=Gray8Dark   Visible=Yes   BubbleLoc=Start
   CoordSys=GLOBAL   AxisDir=Z   GridID=Z1   XRYZCoord=0   LineType=Primary   LineColor=Gray8Dark   Visible=Yes   BubbleLoc=End
   CoordSys=GLOBAL   AxisDir=Z   GridID=Z2   XRYZCoord=3   LineType=Primary   LineColor=Gray8Dark   Visible=Yes   BubbleLoc=End
   CoordSys=GLOBAL   AxisDir=Z   GridID=Z3   XRYZCoord=6   LineType=Primary   LineColor=Gray8Dark   Visible=Yes   BubbleLoc=End
   CoordSys=GLOBAL   AxisDir=Z   GridID=Z4   XRYZCoord=9   LineType=Primary   LineColor=Gray8Dark   Visible=Yes   BubbleLoc=End
   CoordSys=GLOBAL   AxisDir=Z   GridID=Z5   XRYZCoord=12   LineType=Primary   LineColor=Gray8Dark   Visible=Yes   BubbleLoc=End
 
TABLE:  "GROUPS 1 - DEFINITIONS"
   GroupName=ALL   Selection=Yes   SectionCut=Yes   Steel=Yes   Concrete=Yes   Aluminum=Yes   ColdFormed=Yes   Stage=Yes   Bridge=Yes   AutoSeismic=No   AutoWind=No   SelDesSteel=No   SelDesAlum=No   SelDesCold=No   MassWeight=Yes   Color=Red
 
TABLE:  "JOINT COORDINATES"
   Joint=1   CoordSys=GLOBAL   CoordType=Cartesian   XorR=0   Y=0   Z=3   SpecialJt=No   GUID=5b6fb010-d348-48e0-b6f0-73d8112e7055
   Joint=2   CoordSys=GLOBAL   CoordType=Cartesian   XorR=0   Y=6   Z=3   SpecialJt=No   GUID=ad4f34ad-0df1-4e76-ba3a-af7605f7f5f7
   Joint=3   CoordSys=GLOBAL   CoordType=Cartesian   XorR=0   Y=12   Z=3   SpecialJt=No   GUID=ac642c2b-570a-47e0-9c46-70b284eac9b5
   Joint=4   CoordSys=GLOBAL   CoordType=Cartesian   XorR=0   Y=18   Z=3   SpecialJt=No   GUID=a1022219-0f04-4ea5-a345-d467661e046d
   Joint=5   CoordSys=GLOBAL   CoordType=Cartesian   XorR=6   Y=0   Z=3   SpecialJt=No   GUID=95a3b87e-7824-44dd-a071-aca2d50f3dbf
   Joint=6   CoordSys=GLOBAL   CoordType=Cartesian   XorR=6   Y=6   Z=3   SpecialJt=No   GUID=8d63a3d5-8e3b-44ea-8d1d-72361317cd57
   Joint=7   CoordSys=GLOBAL   CoordType=Cartesian   XorR=6   Y=12   Z=3   SpecialJt=No   GUID=593b31e8-5176-4cd0-9b50-e2340e43254b
   Joint=8   CoordSys=GLOBAL   CoordType=Cartesian   XorR=6   Y=18   Z=3   SpecialJt=No   GUID=bd27e1f2-05ba-4834-a099-11b4d32332e5
   Joint=9   CoordSys=GLOBAL   CoordType=Cartesian   XorR=12   Y=0   Z=3   SpecialJt=No   GUID=e8193fd4-080e-4527-b245-55a2b8f41bd0
   Joint=10   CoordSys=GLOBAL   CoordType=Cartesian   XorR=12   Y=6   Z=3   SpecialJt=No   GUID=85188674-22dc-46a5-8671-612cfe639ab2
   Joint=11   CoordSys=GLOBAL   CoordType=Cartesian   XorR=12   Y=12   Z=3   SpecialJt=No   GUID=83b3a59f-efac-4152-a6ea-47c876f8b983
   Joint=12   CoordSys=GLOBAL   CoordType=Cartesian   XorR=12   Y=18   Z=3   SpecialJt=No   GUID=108a3e71-d2f8-4516-8c29-b77eb6ba369d
   Joint=13   CoordSys=GLOBAL   CoordType=Cartesian   XorR=18   Y=0   Z=3   SpecialJt=No   GUID=125ffa52-6c01-4d2e-b831-52ebf5023848
   Joint=14   CoordSys=GLOBAL   CoordType=Cartesian   XorR=18   Y=6   Z=3   SpecialJt=No   GUID=70c9540b-4dcf-4745-acd6-7bdc1ccdf813
   Joint=16   CoordSys=GLOBAL   CoordType=Cartesian   XorR=18   Y=12   Z=3   SpecialJt=No   GUID=5c3e7895-c511-4b5e-8b70-594fc6719d8c
   Joint=17   CoordSys=GLOBAL   CoordType=Cartesian   XorR=18   Y=18   Z=3   SpecialJt=No   GUID=fd228c4c-01f6-4b0b-86bb-d2f578d0f785
   Joint=19   CoordSys=GLOBAL   CoordType=Cartesian   XorR=0   Y=0   Z=0   SpecialJt=No   GUID=e7b2a250-24b6-43b2-b6ab-6c5377b2a43a
   Joint=20   CoordSys=GLOBAL   CoordType=Cartesian   XorR=6   Y=0   Z=0   SpecialJt=No   GUID=b7dffed0-a9d6-40e2-9e13-90244ab40162
   Joint=21   CoordSys=GLOBAL   CoordType=Cartesian   XorR=12   Y=0   Z=0   SpecialJt=No   GUID=e97bdfb3-7c73-4f7e-9bf7-08fe5e56c147
   Joint=22   CoordSys=GLOBAL   CoordType=Cartesian   XorR=18   Y=0   Z=0   SpecialJt=No   GUID=b19c99d5-8908-47fa-9505-a3a0b9ce77f4
   Joint=23   CoordSys=GLOBAL   CoordType=Cartesian   XorR=0   Y=6   Z=0   SpecialJt=No   GUID=949af15e-a2bd-495f-8a4c-7548768a640f
   Joint=24   CoordSys=GLOBAL   CoordType=Cartesian   XorR=6   Y=6   Z=0   SpecialJt=No   GUID=4f28c4b2-20b9-46b9-8514-074c68710083
   Joint=25   CoordSys=GLOBAL   CoordType=Cartesian   XorR=12   Y=6   Z=0   SpecialJt=No   GUID=0c1f0488-ee0f-4158-8410-367fde2e2387
   Joint=26   CoordSys=GLOBAL   CoordType=Cartesian   XorR=18   Y=6   Z=0   SpecialJt=No   GUID=44acbc25-0a1a-4c81-bc66-a9416ba7f494
   Joint=27   CoordSys=GLOBAL   CoordType=Cartesian   XorR=0   Y=12   Z=0   SpecialJt=No   GUID=4d12a906-e0d4-4430-8af0-efdcd5b55fe0
   Joint=28   CoordSys=GLOBAL   CoordType=Cartesian   XorR=6   Y=12   Z=0   SpecialJt=No   GUID=5f17cd34-ccc4-4486-9775-8476dc467e1b
   Joint=29   CoordSys=GLOBAL   CoordType=Cartesian   XorR=12   Y=12   Z=0   SpecialJt=No   GUID=22503b15-26b5-4cd0-8dbb-33ec54e936c6
   Joint=30   CoordSys=GLOBAL   CoordType=Cartesian   XorR=18   Y=12   Z=0   SpecialJt=No   GUID=e262ff3c-795d-4d29-b90c-befef48a566d
   Joint=31   CoordSys=GLOBAL   CoordType=Cartesian   XorR=0   Y=18   Z=0   SpecialJt=No   GUID=1cd9b2e2-c9ac-491b-9134-efbd1007745c
   Joint=32   CoordSys=GLOBAL   CoordType=Cartesian   XorR=6   Y=18   Z=0   SpecialJt=No   GUID=d7a08525-96ac-427c-a1e9-2b1e02eb4f0e
   Joint=33   CoordSys=GLOBAL   CoordType=Cartesian   XorR=12   Y=18   Z=0   SpecialJt=No   GUID=532f086c-c22c-48ca-992b-5c9c1db1f06f
   Joint=34   CoordSys=GLOBAL   CoordType=Cartesian   XorR=18   Y=18   Z=0   SpecialJt=No   GUID=6f9a54f3-8274-46e7-a18f-0e8c2e312ae3
 
TABLE:  "JOINT LOADS - FORCE"
   Joint=1   LoadPat=Live   CoordSys=GLOBAL   F1=10   F2=0   F3=0   M1=0   M2=0   M3=0   GUID=222872af-49d4-4c74-a367-7ba8ad47ea49
   Joint=2   LoadPat=Live   CoordSys=GLOBAL   F1=10   F2=0   F3=0   M1=0   M2=0   M3=0   GUID=a59d10b3-108a-43aa-ad71-a67838b1e8cd
   Joint=3   LoadPat=Live   CoordSys=GLOBAL   F1=10   F2=0   F3=0   M1=0   M2=0   M3=0   GUID=76906f05-fe22-4543-971d-db4c4626a0e3
   Joint=4   LoadPat=Live   CoordSys=GLOBAL   F1=10   F2=0   F3=0   M1=0   M2=0   M3=0   GUID=72cf5ee3-77e1-4642-a4fd-74dad6365a03
 
TABLE:  "JOINT PATTERN DEFINITIONS"
   Pattern=Default
 
TABLE:  "JOINT RESTRAINT ASSIGNMENTS"
   Joint=19   U1=Yes   U2=Yes   U3=Yes   R1=No   R2=No   R3=No
   Joint=20   U1=Yes   U2=Yes   U3=Yes   R1=No   R2=No   R3=No
   Joint=21   U1=Yes   U2=Yes   U3=Yes   R1=No   R2=No   R3=No
   Joint=22   U1=Yes   U2=Yes   U3=Yes   R1=No   R2=No   R3=No
   Joint=23   U1=Yes   U2=Yes   U3=Yes   R1=No   R2=No   R3=No
   Joint=24   U1=Yes   U2=Yes   U3=Yes   R1=No   R2=No   R3=No
   Joint=25   U1=Yes   U2=Yes   U3=Yes   R1=No   R2=No   R3=No
   Joint=26   U1=Yes   U2=Yes   U3=Yes   R1=No   R2=No   R3=No
   Joint=27   U1=Yes   U2=Yes   U3=Yes   R1=No   R2=No   R3=No
   Joint=28   U1=Yes   U2=Yes   U3=Yes   R1=No   R2=No   R3=No
   Joint=29   U1=Yes   U2=Yes   U3=Yes   R1=No   R2=No   R3=No
   Joint=30   U1=Yes   U2=Yes   U3=Yes   R1=No   R2=No   R3=No
   Joint=31   U1=Yes   U2=Yes   U3=Yes   R1=No   R2=No   R3=No
   Joint=32   U1=Yes   U2=Yes   U3=Yes   R1=No   R2=No   R3=No
   Joint=33   U1=Yes   U2=Yes   U3=Yes   R1=No   R2=No   R3=No
   Joint=34   U1=Yes   U2=Yes   U3=Yes   R1=No   R2=No   R3=No
 
TABLE:  "LOAD CASE DEFINITIONS"
   Case=DEAD   Type=LinStatic   InitialCond=Zero   DesTypeOpt="Prog Det"   DesignType=Dead   DesActOpt="Prog Det"   DesignAct=Non-Composite   AutoType=None   RunCase=Yes   GUID=a1dbf730-1ec1-41f0-b1e9-39cbd1ee67c9
   Case=MODAL   Type=LinModal   InitialCond=Zero   DesTypeOpt="Prog Det"   DesignType=Other   DesActOpt="Prog Det"   DesignAct=Other   AutoType=None   RunCase=Yes   GUID=2ff07c2f-02cf-467c-a439-22f9de433eb9
   Case=Live   Type=LinStatic   InitialCond=Zero   DesTypeOpt="Prog Det"   DesignType=Dead   DesActOpt="Prog Det"   DesignAct=Non-Composite   AutoType=None   RunCase=Yes   GUID=27e8475c-dbbe-4fb0-a11c-b9af7de83eb5
   Case=1.6D+1.4L   Type=LinStatic   InitialCond=Zero   DesTypeOpt="Prog Det"   DesignType=Dead   DesActOpt="Prog Det"   DesignAct=Non-Composite   AutoType=None   RunCase=Yes   GUID=5be6dbbc-b2df-4833-b9fc-336d00d38f12
   Case=RSA_X   Type=LinRespSpec   ModalCase=MODAL   DesTypeOpt="Prog Det"   DesignType=Quake   DesActOpt="Prog Det"   DesignAct="Short-Term Composite"   AutoType=None   RunCase=Yes   GUID=1522d2cb-4d80-49be-a89b-9b9818b9ccb6
 
TABLE:  "LOAD PATTERN DEFINITIONS"
   LoadPat=DEAD   DesignType=Dead   SelfWtMult=1   GUID=540b5016-c720-4f66-8a29-2d274ad0b153
   LoadPat=Live   DesignType=Dead   SelfWtMult=0   GUID=18f153f6-5889-41e2-98cf-8932e481dc0f   Notes="Added 2/3/2026 7:39:32 PM"
 
TABLE:  "MASS SOURCE"
   MassSource=MSSSRC1   Elements=No   Masses=No   Loads=Yes   IsDefault=Yes   LoadPat=DEAD   Multiplier=1
   MassSource=MSSSRC1   LoadPat=Live   Multiplier=0.3
 
TABLE:  "MATERIAL PROPERTIES 01 - GENERAL"
   Material=4000Psi   Type=Concrete   Grade="f'c 4000 psi"   SymType=Isotropic   TempDepend=No   Color=Blue   GUID=0436f437-b222-454d-a1da-2c17c45d288a   Notes="Customary f'c 4000 psi 2/3/2026 5:32:27 PM"
   Material=A416Gr270   Type=Tendon   Grade="Grade 270"   SymType=Uniaxial   TempDepend=No   Color=Cyan   GUID=ce3e3edd-36ab-46ca-838a-5d188967c9fe   Notes="ASTM A416 Grade 270 2/4/2026 3:42:37 AM"
   Material=A615Gr60   Type=Rebar   Grade="Grade 60"   SymType=Uniaxial   TempDepend=No   Color=Cyan   GUID=7db62763-0263-4e66-b536-5535b7f99601   Notes="ASTM A615 Grade 60 2/3/2026 5:36:19 PM"
   Material=A992Fy50   Type=Steel   Grade="Grade 50"   SymType=Isotropic   TempDepend=No   Color=Gray8Dark   GUID=1558d137-2500-4f5a-a728-ddb6f646b1aa   Notes="ASTM A992 Grade 50 2/3/2026 5:32:27 PM"
   Material=C30   Type=Other   SymType=Isotropic   TempDepend=No   Color=Green   GUID=59b07e44-fbff-4415-b225-e2e99f259222   Notes="MAT added 2/3/2026 5:33:55 PM"
 
TABLE:  "MATERIAL PROPERTIES 02 - BASIC MECHANICAL PROPERTIES"
   Material=4000Psi   UnitWeight=23.5631216161854   UnitMass=2.40276960558926   E1=24855578.0600518   G12=10356490.8583549   U12=0.2   A1=9.89999952793124E-06
   Material=A416Gr270   UnitWeight=76.9728639422648   UnitMass=7.84904737995992   E1=196500599.8512   A1=1.16999994421006E-05
   Material=A615Gr60   UnitWeight=76.9728639422648   UnitMass=7.84904737995992   E1=199947978.795958   A1=1.16999994421006E-05
   Material=A992Fy50   UnitWeight=76.9728639422648   UnitMass=7.84904737995992   E1=199947978.795958   G12=76903068.767676   U12=0.3   A1=1.16999994421006E-05
   Material=C30   UnitWeight=24   UnitMass=2.44731886133381   E1=30000000   G12=11538461.5384615   U12=0.3   A1=1.17E-05
 
TABLE:  "MATERIAL PROPERTIES 03A - STEEL DATA"
   Material=A992Fy50   Fy=344737.894475789   Fu=448159.262818526   EffFy=379211.683923368   EffFu=492975.189100378   SSCurveOpt=Simple   SSHysType=Kinematic   SHard=0.015   SMax=0.11   SRup=0.17   FinalSlope=-0.1   CoupModType="Von Mises"
 
TABLE:  "MATERIAL PROPERTIES 03B - CONCRETE DATA"
   Material=4000Psi   Fc=27579.0315580631   eFc=27579.0315580631   LtWtConc=No   SSCurveOpt=Mander   SSHysType=Takeda   SFc=0.00221914   SCap=0.005   FinalSlope=-0.1   FAngle=0   DAngle=0   CoupModType="Modified Darwin-Pecknold"
 
TABLE:  "MATERIAL PROPERTIES 03E - REBAR DATA"
   Material=A615Gr60   Fy=413685.473370947   Fu=620528.21005642   EffFy=455054.020708041   EffFu=682581.031062062   SSCurveOpt=Simple   SSHysType=Kinematic   SHard=0.01   SCap=0.09   FinalSlope=-0.1   UseCTDef=No   CoupModType="Von Mises"
 
TABLE:  "MATERIAL PROPERTIES 03F - TENDON DATA"
   Material=A416Gr270   Fy=1689905.15872032   Fu=1861584.63016926   SSCurveOpt="270 ksi"   SSHysType=Kinematic   FinalSlope=-0.1   CoupModType="Von Mises"
 
TABLE:  "MATERIAL PROPERTIES 03G - OTHER DATA"
   Material=C30   SSHysType=Takeda   FAngle=0   DAngle=0   CoupModType=None
 
TABLE:  "MATERIAL PROPERTIES 03J - COUPLED NONLINEAR VON MISES DATA"
   Material=A416Gr270   YieldStress=1689905.15872032   LinIsoHard=No   LinKinHard=No   NLIsoSaHard=No
   Material=A615Gr60   YieldStress=455054.020708041   LinIsoHard=No   LinKinHard=No   NLIsoSaHard=No
   Material=A992Fy50   YieldStress=379211.683923368   LinIsoHard=No   LinKinHard=No   NLIsoSaHard=No
 
TABLE:  "MATERIAL PROPERTIES 04 - USER STRESS-STRAIN CURVES"
   Material=C30   Strain=-3.33333333333333E-08   Stress=-1
   Material=C30   Strain=0   Stress=0   PointID=A
   Material=C30   Strain=3.33333333333333E-08   Stress=1
 
TABLE:  "MATERIAL PROPERTIES 06 - DAMPING PARAMETERS"
   Material=4000Psi   ModalRatio=0   VisMass=0   VisStiff=0   HysMass=0   HysStiff=0
   Material=A416Gr270   ModalRatio=0   VisMass=0   VisStiff=0   HysMass=0   HysStiff=0
   Material=A615Gr60   ModalRatio=0   VisMass=0   VisStiff=0   HysMass=0   HysStiff=0
   Material=A992Fy50   ModalRatio=0   VisMass=0   VisStiff=0   HysMass=0   HysStiff=0
   Material=C30   ModalRatio=0   VisMass=0   VisStiff=0   HysMass=0   HysStiff=0
 
TABLE:  "MATERIAL PROPERTIES 09 - ACCEPTANCE CRITERIA"
   Material=4000Psi   IOTens=0.01   LSTens=0.02   CPTens=0.05   IOComp=-0.003   LSComp=-0.006   CPComp=-0.015   IgnoreTens=Yes
   Material=A416Gr270   IOTens=0.015   LSTens=0.023   CPTens=0.03   IOComp=-0.015   LSComp=-0.023   CPComp=-0.03
   Material=A615Gr60   IOTens=0.01   LSTens=0.02   CPTens=0.05   IOComp=-0.005   LSComp=-0.01   CPComp=-0.02
   Material=A992Fy50   IOTens=0.01   LSTens=0.02   CPTens=0.05   IOComp=-0.005   LSComp=-0.01   CPComp=-0.02
   Material=C30   IOTens=0.01   LSTens=0.02   CPTens=0.05   IOComp=-0.005   LSComp=-0.01   CPComp=-0.02   IgnoreTens=No
 
TABLE:  "OPTIONS - COLORS - DISPLAY"
   DeviceType=Screen   Points=Blue   LinesFrame=Blue   LinesFrmDL=Blue   LinesCable=Green   LinesTendon=Green   SpringLinks=Green   Restraints=Green   Releases=Green   Axes=Cyan   Text=Black   ShadowLines=Gray8Dark   GuideLines=Gray8Dark _
        Highlight=Red   Selection=10504778   AreaFillBot=Red   AreaFillTop=16744703   AreaFillSd=Red   AreaEdge=DarkRed   SolidF1=Red   SolidF2=Blue   SolidF3=Green   SolidF4=Yellow   SolidF5=White   SolidF6=Cyan   SolidEdge=DarkRed _
        Floor=Gray4   Background=White   BGLowLeft=White   BGLowRight=White   BGUpRight=White   Darkness=0
   DeviceType=Printer   Points=Gray8Dark   LinesFrame=Black   LinesFrmDL=Gray4   LinesCable=Black   LinesTendon=Black   SpringLinks=Gray8Dark   Restraints=Gray8Dark   Releases=Gray4   Axes=Black   Text=Black   ShadowLines=Gray4 _
        GuideLines=Gray4   Highlight=Black   Selection=Black   AreaFillBot=Gray4   AreaFillTop=Gray8Dark   AreaFillSd=Gray4   AreaEdge=Black   SolidF1=Gray1Light   SolidF2=Gray2   SolidF3=Gray3   SolidF4=Gray4   SolidF5=Gray5 _
        SolidF6=Gray6   SolidEdge=Black   Floor=Gray4   Background=White   BGLowLeft=White   BGLowRight=White   BGUpRight=White   Darkness=0.5
   DeviceType="Color Printer"   Points=Blue   LinesFrame=Blue   LinesFrmDL=Blue   LinesCable=Green   LinesTendon=Green   SpringLinks=Green   Restraints=Green   Releases=Green   Axes=Cyan   Text=Black   ShadowLines=Gray8Dark _
        GuideLines=Gray8Dark   Highlight=Red   Selection=10504778   AreaFillBot=Red   AreaFillTop=16744703   AreaFillSd=Red   AreaEdge=DarkRed   SolidF1=Red   SolidF2=Blue   SolidF3=Green   SolidF4=Yellow   SolidF5=White   SolidF6=Cyan _
        SolidEdge=DarkRed   Floor=Gray4   Background=White   BGLowLeft=White   BGLowRight=White   BGUpRight=White   Darkness=0.5
 
TABLE:  "OPTIONS - COLORS - OUTPUT"
   DeviceType=Screen   Contour1=13107400   Contour2=6553828   Contour3=Red   Contour4=16639   Contour5=Orange   Contour6=43775   Contour7=54527   Contour8=Yellow   Contour9=65408   Contour10=Green   Contour11=8453888   Contour12=Cyan _
        Contour13=16755200   Contour14=16733440   Contour15=Blue   Transpare=0   Ratio1=Cyan   Ratio2=Green   Ratio3=Yellow   Ratio4=Orange   Ratio5=Red   RatioNotD=Gray4   RatioNotC=Red   RatioVal1=0.5   RatioVal2=0.7   RatioVal3=0.9 _
        RatioVal4=1   DFillPos=Blue   DFillNeg=Red   DFillRPos=9498256   DFillRNeg=9498256
   DeviceType=Printer   Contour1=Black   Contour2=3158064   Contour3=4210752   Contour4=5263440   Contour5=6316128   Contour6=7368816   Contour7=Gray8Dark   Contour8=Gray7   Contour9=Gray6   Contour10=Gray5   Contour11=Gray4 _
        Contour12=Gray3   Contour13=Gray2   Contour14=Gray1Light   Contour15=White   Transpare=0   Ratio1=Gray2   Ratio2=Gray4   Ratio3=Gray8Dark   Ratio4=4210752   Ratio5=Black   RatioNotD=Gray4   RatioNotC=Black   RatioVal1=0.5 _
        RatioVal2=0.7   RatioVal3=0.9   RatioVal4=1   DFillPos=Gray8Dark   DFillNeg=Gray8Dark   DFillRPos=4210752   DFillRNeg=4210752
   DeviceType="Color Printer"   Contour1=13107400   Contour2=6553828   Contour3=Red   Contour4=16639   Contour5=Orange   Contour6=43775   Contour7=54527   Contour8=Yellow   Contour9=65408   Contour10=Green   Contour11=8453888 _
        Contour12=Cyan   Contour13=16755200   Contour14=16733440   Contour15=Blue   Transpare=0   Ratio1=Cyan   Ratio2=Green   Ratio3=Yellow   Ratio4=Orange   Ratio5=Red   RatioNotD=Gray4   RatioNotC=Red   RatioVal1=0.5   RatioVal2=0.7 _
        RatioVal3=0.9   RatioVal4=1   DFillPos=Blue   DFillNeg=Red   DFillRPos=9498256   DFillRNeg=9498256
 
TABLE:  "PREFERENCES - ALUMINUM DESIGN - AA 2015"
   THDesign=Envelopes   SRatioLimit=1   Provision=LRFD   LatFact=1.33333333333333   UseLatFact=No   Bridge=No   PhiTy=0.9   PhiTr=0.75   PhiC=0.9   PhiBo=0.9   PhiBr=0.75   PhiVo=0.9   PhiVr=0.75
 
TABLE:  "PREFERENCES - COLD FORMED DESIGN - AISI-16"
   THDesign=Envelopes   FrameType="Braced Frame"   SRatioLimit=1   SOMethod="General 2nd Order"   Provision=LRFD   LatFact=1.33333333333333   UseLatFact=No   PhiTy=0.9   PhiTr=0.75   PhiC=0.85   PhiB=0.9   PhiBPipe=0.95   PhiV=0.95
 
TABLE:  "PREFERENCES - CONCRETE DESIGN - ACI 318-19"
   THDesign=Envelopes   NumCurves=24   NumPoints=11   MinEccen=Yes   BCCDesign=Yes   IgnoreBPu=Yes   CTorsion=Yes   PatLLF=0.75   UFLimit=0.95   SeisCat=D   Rho=1   Sds=0.5   PhiT=0.9   PhiCTied=0.65   PhiCSpiral=0.75   PhiV=0.75 _
        PhiVSeismic=0.6   PhiVJoint=0.85   TanTheta=1
 
TABLE:  "PREFERENCES - CONCRETE SHELL DESIGN - EUROCODE 2-2004"
   Country="CEN Default"   GammaS=1.15   GammaC=1.5   AlphaCC=1   AlphaCT=1   CrackCond="Program Determined"   ShrDesMet="Method 1"   CotTheta=1   AddTenForce=Yes
 
TABLE:  "PREFERENCES - DIMENSIONAL"
   MergeTol=0.001   FineGrid=0.25   Nudge=0.25   SelectTol=3   SnapTol=12   SLineThick=2   PLineThick=4   MaxFont=12   MinFont=6   AutoZoom=10   ShrinkFact=70   TextFileLen=240
 
TABLE:  "PREFERENCES - STEEL DESIGN - AISC 360-16"
   THDesign=Envelopes   FrameType=SMF   PatLLF=0.75   SRatioLimit=0.95   MaxIter=1   SDC=D   SeisCode=No   SeisLoad=No   ImpFactor=1   SystemRho=1   SystemSds=0.5   SystemR=8   SystemCd=5.5   Omega0=3   Provision=LRFD _
        AMethod="Direct Analysis"   SOMethod="General 2nd Order"   SRMethod="Tau-b Fixed"   NLCoeff=0.002   PhiB=0.9   PhiC=0.9   PhiTY=0.9   PhiTF=0.75   PhiV=0.9   PhiVRolledI=1   PhiVT=0.9   PlugWeld=Yes   HSSWelding=ERW   HSSReduceT=No _
        CheckDefl=No   DLRat=120   SDLAndLLRat=120   LLRat=360   TotalRat=240   NetRat=240
 
TABLE:  "PROGRAM CONTROL"
   ProgramName=SAP2000   Version=25.3.1   CurrUnits="KN, m, C"   SteelCode="AISC 360-16"   ConcCode="ACI 318-19"   AlumCode="AA 2015"   ColdCode=AISI-16   RegenHinge=Yes
 
TABLE:  "PROJECT INFORMATION"
   Item="Company Name"
   Item="Client Name"
   Item="Project Name"
   Item="Project Number"
   Item="Model Name"
   Item="Model Description"
   Item="Revision Number"
   Item="Frame Type"
   Item=Engineer
   Item=Checker
   Item=Supervisor
   Item="Issue Code"
   Item="Design Code"
 
TABLE:  "REBAR SIZES"
   RebarID=#2   Area=3.2258E-05   Diameter=0.00635
   RebarID=#3   Area=7.09675996154547E-05   Diameter=0.009525
   RebarID=#4   Area=0.000129032001922727   Diameter=0.0127
   RebarID=#5   Area=0.000199999601538181   Diameter=0.015875
   RebarID=#6   Area=0.000283870398461819   Diameter=0.01905
   RebarID=#7   Area=0.000387096015381813   Diameter=0.022225
   RebarID=#8   Area=0.000509676413843632   Diameter=0.0254
   RebarID=#9   Area=0.00064516   Diameter=0.0286512005329132
   RebarID=#10   Area=0.00081935318769455   Diameter=0.0322579995155334
   RebarID=#11   Area=0.00100644956308365   Diameter=0.0358139991521835
   RebarID=#14   Area=0.00145161   Diameter=0.0430021989583969
   RebarID=#18   Area=0.00258064   Diameter=0.0573277992248535
   RebarID=10M   Area=0.000100000002655387   Diameter=0.011300000667572
   RebarID=15M   Area=0.000200000005310774   Diameter=0.0159999999403954
   RebarID=20M   Area=0.000300000017579794   Diameter=0.0194999997854233
   RebarID=25M   Area=0.000500000022890568   Diameter=0.0252000016093254
   RebarID=30M   Area=0.000700000008974075   Diameter=0.0299000008821487
   RebarID=35M   Area=0.00100000004578114   Diameter=0.0357000011444092
   RebarID=45M   Area=0.00150000010712624   Diameter=0.0437000003576279
   RebarID=55M   Area=0.00250000007599831   Diameter=0.0564000033855438
   RebarID=6d   Area=2.83000004149973E-05   Diameter=0.006000000166893
   RebarID=8d   Area=5.02999995571375E-05   Diameter=0.00799999997019768
   RebarID=10d   Area=7.85000013634562E-05   Diameter=0.00999999977350235
   RebarID=12d   Area=0.000113000009249449   Diameter=0.012000000333786
   RebarID=14d   Area=0.000154000010818839   Diameter=0.0140000008940697
   RebarID=16d   Area=0.000201000015431643   Diameter=0.0159999999403954
   RebarID=20d   Area=0.000314000005453825   Diameter=0.0199999995470047
   RebarID=25d   Area=0.000491000008711815   Diameter=0.0250000001907349
   RebarID=26d   Area=0.000531000029001236   Diameter=0.0259999997138977
   RebarID=28d   Area=0.000616000043275356   Diameter=0.0280000017881393
   RebarID=N12   Area=0.000113000009249449   Diameter=0.012000000333786
   RebarID=N16   Area=0.000201000015431643   Diameter=0.0159999999403954
   RebarID=N20   Area=0.000314000005453825   Diameter=0.0199999995470047
   RebarID=N24   Area=0.000452000036997795   Diameter=0.024000000667572
   RebarID=N28   Area=0.000616000043275356   Diameter=0.0280000017881393
   RebarID=N32   Area=0.00080400006172657   Diameter=0.0319999998807907
   RebarID=N36   Area=0.00102000001747131   Diameter=0.036000001001358
 
TABLE:  "SOLID PROPERTY DEFINITIONS"
   SolidProp=Solid1   Material=4000Psi   MatAngleA=0   MatAngleB=0   MatAngleC=0   InComp=Yes   Color=Red   GUID=03db5150-928f-4970-ae79-252661c863e8
 
END TABLE DATA
